9
Coordinates from ORCA-job irc_IRC_Full E -266.952381711231
  C      -4.357901      1.885515     -0.000080
  C      -3.103557      1.208166      0.000114
  C      -1.958153      1.981280      0.000089
  H      -3.048243      0.120881      0.000175
  O      -1.994683      3.292931      0.000016
  H      -0.948943      1.552050      0.000087
  O      -4.453739      3.144594     -0.000179
  H      -5.294144      1.294330     -0.000188
  H      -3.036443      3.510003     -0.000054
9
Coordinates from ORCA-job irc_IRC_Full E -266.952337563998
  C      -4.356279      1.885783     -0.000078
  C      -3.102938      1.206992      0.000125
  C      -1.957667      1.981108      0.000093
  H      -3.048211      0.119799      0.000175
  O      -1.996354      3.292333      0.000021
  H      -0.947726      1.553493      0.000075
  O      -4.449818      3.145465     -0.000184
  H      -5.294428      1.298067     -0.000193
  H      -3.042385      3.506711     -0.000055
9
Coordinates from ORCA-job irc_IRC_Full E -266.952284496884
  C      -4.354621      1.885803     -0.000075
  C      -3.103013      1.205633      0.000138
  C      -1.957423      1.981519      0.000097
  H      -3.048133      0.118404      0.000173
  O      -1.997935      3.291427      0.000029
  H      -0.946879      1.555920      0.000063
  O      -4.445139      3.146479     -0.000189
  H      -5.294867      1.301791     -0.000198
  H      -3.047795      3.502775     -0.000058
9
Coordinates from ORCA-job irc_IRC_Full E -266.952224337636
  C      -4.353245      1.885804     -0.000064
  C      -3.103210      1.204406      0.000148
  C      -1.958280      1.981718      0.000100
  H      -3.048031      0.117064      0.000170
  O      -1.998720      3.290897      0.000037
  H      -0.947419      1.559462      0.000052
  O      -4.440412      3.147377     -0.000196
  H      -5.294827      1.305020     -0.000205
  H      -3.051662      3.498003     -0.000063
9
Coordinates from ORCA-job irc_IRC_Full E -266.952154443885
  C      -4.352053      1.885472     -0.000047
  C      -3.103623      1.203507      0.000152
  C      -1.959301      1.982162      0.000102
  H      -3.047973      0.116234      0.000168
  O      -2.001204      3.290900      0.000043
  H      -0.948654      1.562551      0.000045
  O      -4.436066      3.148474     -0.000205
  H      -5.294532      1.307154     -0.000212
  H      -3.052400      3.493296     -0.000067
9
Coordinates from ORCA-job irc_IRC_Full E -266.952064170718
  C      -4.351134      1.885271     -0.000033
  C      -3.103978      1.202890      0.000153
  C      -1.960136      1.982796      0.000103
  H      -3.047957      0.115813      0.000166
  O      -2.004506      3.291082      0.000046
  H      -0.949706      1.564607      0.000041
  O      -4.432588      3.149330     -0.000211
  H      -5.294279      1.308399     -0.000217
  H      -3.051522      3.489564     -0.000069
9
Coordinates from ORCA-job irc_IRC_Full E -266.951822072154
  C      -4.350013      1.885564     -0.000012
  C      -3.104181      1.202251      0.000152
  C      -1.961460      1.984082      0.000105
  H      -3.047994      0.115564      0.000165
  O      -2.011473      3.291594      0.000050
  H      -0.950787      1.566489      0.000037
  O      -4.427690      3.150119     -0.000220
  H      -5.294044      1.309446     -0.000225
  H      -3.048165      3.484642     -0.000071
9
Coordinates from ORCA-job irc_IRC_Full E -266.950654087355
  C      -4.348442      1.886731      0.000019
  C      -3.103906      1.201771      0.000146
  C      -1.963781      1.986936      0.000107
  H      -3.048168      0.115639      0.000163
  O      -2.029215      3.293109      0.000052
  H      -0.951090      1.567295      0.000032
  O      -4.419459      3.150985     -0.000232
  H      -5.294071      1.310067     -0.000235
  H      -3.037673      3.477218     -0.000072
9
Coordinates from ORCA-job irc_IRC_Full E -266.951162996452
  C      -4.342585      1.873974     -0.000072
  C      -3.111900      1.201356      0.000189
  C      -1.959259      2.000243      0.000122
  H      -3.054068      0.115337      0.000229
  O      -2.023353      3.285528      0.000019
  H      -0.952287      1.553637      0.000055
  O      -4.414273      3.159184     -0.000176
  H      -5.296848      1.323624     -0.000295
  H      -3.231567      3.466217     -0.000071
9
Coordinates from ORCA-job irc_IRC_Full E -266.950645611038
  C      -4.336729      1.861217     -0.000162
  C      -3.119894      1.200942      0.000231
  C      -1.954738      2.013549      0.000136
  H      -3.059967      0.115036      0.000295
  O      -2.017491      3.277946     -0.000014
  H      -0.953483      1.539980      0.000077
  O      -4.409087      3.167383     -0.000120
  H      -5.299624      1.337181     -0.000354
  H      -3.425461      3.455216     -0.000069
9
Coordinates from ORCA-job irc_IRC_Full E -266.951820300243
  C      -4.338746      1.858096     -0.000139
  C      -3.119672      1.201462      0.000218
  C      -1.953102      2.012528      0.000133
  H      -3.060151      0.114952      0.000293
  O      -2.009334      3.278031     -0.000011
  H      -0.953472      1.539341      0.000081
  O      -4.426553      3.163891     -0.000136
  H      -5.299821      1.336350     -0.000355
  H      -3.415622      3.463798     -0.000065
9
Coordinates from ORCA-job irc_IRC_Full E -266.952060368197
  C      -4.339901      1.856665     -0.000124
  C      -3.119929      1.202060      0.000209
  C      -1.952008      2.012364      0.000131
  H      -3.060223      0.115190      0.000291
  O      -2.004558      3.277819     -0.000008
  H      -0.953168      1.538339      0.000085
  O      -4.433314      3.162592     -0.000147
  H      -5.300685      1.334381     -0.000353
  H      -3.412687      3.469041     -0.000062
9
Coordinates from ORCA-job irc_IRC_Full E -266.952148170840
  C      -4.340631      1.855942     -0.000114
  C      -3.120317      1.202597      0.000201
  C      -1.951181      2.012661      0.000128
  H      -3.060255      0.115585      0.000289
  O      -2.001234      3.277396     -0.000006
  H      -0.952836      1.537191      0.000089
  O      -4.436480      3.162017     -0.000156
  H      -5.301485      1.332298     -0.000351
  H      -3.412057      3.472762     -0.000060
9
Coordinates from ORCA-job irc_IRC_Full E -266.952216791174
  C      -4.341584      1.855326     -0.000102
  C      -3.120791      1.203414      0.000191
  C      -1.950098      2.013087      0.000124
  H      -3.060283      0.116369      0.000286
  O      -1.996999      3.276874     -0.000001
  H      -0.952383      1.535195      0.000094
  O      -4.438994      3.161669     -0.000167
  H      -5.302385      1.329127     -0.000345
  H      -3.412958      3.477388     -0.000059
9
Coordinates from ORCA-job irc_IRC_Full E -266.952275341925
  C      -4.342357      1.854918     -0.000096
  C      -3.121166      1.204632      0.000180
  C      -1.948779      2.013225      0.000121
  H      -3.060297      0.117651      0.000281
  O      -1.992363      3.276598      0.000005
  H      -0.952071      1.532085      0.000102
  O      -4.439887      3.162047     -0.000178
  H      -5.302598      1.325447     -0.000334
  H      -3.416957      3.481846     -0.000060
9
Coordinates from ORCA-job irc_IRC_Full E -266.952325962251
  C      -4.342226      1.854709     -0.000097
  C      -3.121182      1.205893      0.000169
  C      -1.947275      2.013355      0.000119
  H      -3.060323      0.118994      0.000274
  O      -1.987855      3.276209      0.000011
  H      -0.952132      1.528461      0.000110
  O      -4.441360      3.162615     -0.000187
  H      -5.301491      1.323071     -0.000317
  H      -3.422629      3.485144     -0.000063
