9
-267.1574008780
 C                 -1.19486200    0.41405400    0.00000000
 C                  0.00956800    1.16863400    0.00000000
 C                  1.18230800    0.44184800    0.00000000
 O                 -1.20165100   -0.84483200    0.00000000
 O                  1.19192600   -0.86125700    0.00000000
 H                 -2.16315700    0.93787500    0.00000000
 H                  0.00703700    2.25012000    0.00000000
 H                  2.16704500    0.91099700    0.00000000
 H                  0.17897600   -1.12792900    0.00000000