9
Coordinates from ORCA-job irc4_IRC_Full E -266.627474694286
  C      -4.293086      1.860834      0.044040
  C      -3.093636      1.247515     -0.129990
  C      -1.765094      1.910492     -0.100163
  H      -3.097659      0.148529     -0.217513
  O      -1.388824      2.782891     -0.868610
  H      -1.090093      1.566391      0.746606
  O      -4.541699      3.159921      0.296815
  H      -5.228017      1.274413      0.051239
  H      -3.703960      3.665720      0.279338
9
Coordinates from ORCA-job irc4_IRC_Full E -266.627101436413
  C      -4.293268      1.860602      0.045150
  C      -3.093919      1.248442     -0.131283
  C      -1.764262      1.910715     -0.100644
  H      -3.097616      0.149754     -0.223100
  O      -1.382166      2.773551     -0.876542
  H      -1.094195      1.574449      0.753263
  O      -4.542857      3.159297      0.300712
  H      -5.227935      1.273790      0.051078
  H      -3.705851      3.666105      0.283128
9
Coordinates from ORCA-job irc4_IRC_Full E -266.626734828235
  C      -4.293455      1.860363      0.046301
  C      -3.094211      1.249371     -0.132556
  C      -1.763432      1.910936     -0.101090
  H      -3.097561      0.151024     -0.228740
  O      -1.375484      2.764119     -0.884351
  H      -1.098314      1.582581      0.759803
  O      -4.544012      3.158666      0.304632
  H      -5.227858      1.273167      0.050931
  H      -3.707742      3.666480      0.286833
9
Coordinates from ORCA-job irc4_IRC_Full E -266.626375280104
  C      -4.293647      1.860122      0.047494
  C      -3.094489      1.250332     -0.133804
  C      -1.762620      1.911179     -0.101545
  H      -3.097493      0.152321     -0.234427
  O      -1.368792      2.754573     -0.892002
  H      -1.102434      1.590773      0.766228
  O      -4.545169      3.158019      0.308575
  H      -5.227793      1.272541      0.050795
  H      -3.709632      3.666845      0.290448
9
Coordinates from ORCA-job irc4_IRC_Full E -266.626022585568
  C      -4.293849      1.859870      0.048729
  C      -3.094795      1.251279     -0.135037
  C      -1.761788      1.911415     -0.101942
  H      -3.097405      0.153688     -0.240156
  O      -1.362066      2.744942     -0.899548
  H      -1.106578      1.599032      0.772522
  O      -4.546327      3.157366      0.312549
  H      -5.227729      1.271916      0.050668
  H      -3.711532      3.667199      0.293976
9
Coordinates from ORCA-job irc4_IRC_Full E -266.625677390156
  C      -4.294056      1.859622      0.050007
  C      -3.095057      1.252303     -0.136237
  C      -1.761009      1.911682     -0.102388
  H      -3.097297      0.155064     -0.245917
  O      -1.355329      2.735186     -0.906912
  H      -1.110703      1.607328      0.778705
  O      -4.547494      3.156690      0.316553
  H      -5.227691      1.271286      0.050544
  H      -3.713434      3.667545      0.297405
9
Coordinates from ORCA-job irc4_IRC_Full E -266.625339279590
  C      -4.294286      1.859355      0.051328
  C      -3.095393      1.253265     -0.137436
  C      -1.760149      1.911942     -0.102724
  H      -3.097156      0.156557     -0.251702
  O      -1.348543      2.725354     -0.914200
  H      -1.114872      1.615685      0.784729
  O      -4.548664      3.156012      0.320606
  H      -5.227646      1.270662      0.050420
  H      -3.715361      3.667874      0.300742
9
Coordinates from ORCA-job irc4_IRC_Full E -266.625009216035
  C      -4.294514      1.859100      0.052693
  C      -3.095620      1.254395     -0.138589
  C      -1.759430      1.912241     -0.103188
  H      -3.096987      0.158017     -0.257503
  O      -1.341742      2.715386     -0.921271
  H      -1.118981      1.624048      0.790665
  O      -4.549854      3.155296      0.324700
  H      -5.227653      1.270029      0.050288
  H      -3.717287      3.668194      0.303967
9
Coordinates from ORCA-job irc4_IRC_Full E -266.624686594688
  C      -4.294793      1.858819      0.054102
  C      -3.096009      1.255369     -0.139772
  C      -1.758506      1.912540     -0.103451
  H      -3.096762      0.159672     -0.263298
  O      -1.334878      2.705355     -0.928305
  H      -1.123178      1.632464      0.796384
  O      -4.551044      3.154586      0.328871
  H      -5.227641      1.269414      0.050143
  H      -3.719259      3.668486      0.307089
9
Coordinates from ORCA-job irc4_IRC_Full E -266.624372548763
  C      -4.295054      1.858553      0.055552
  C      -3.096183      1.256659     -0.140888
  C      -1.757878      1.912872     -0.103964
  H      -3.096499      0.161222     -0.269086
  O      -1.327980      2.695183     -0.935080
  H      -1.127249      1.640849      0.802066
  O      -4.552276      3.153819      0.333114
  H      -5.227730      1.268786      0.049971
  H      -3.721220      3.668762      0.310077
9
Coordinates from ORCA-job irc4_IRC_Full E -266.624066448109
  C      -4.295411      1.858259      0.057046
  C      -3.096645      1.257668     -0.142085
  C      -1.756855      1.913233     -0.104153
  H      -3.096144      0.163075     -0.274815
  O      -1.321012      2.684957     -0.941851
  H      -1.131466      1.649276      0.807440
  O      -4.553496      3.153054      0.337476
  H      -5.227788      1.268198      0.049763
  H      -3.723254      3.668986      0.312941
9
Coordinates from ORCA-job irc4_IRC_Full E -266.623769159103
  C      -4.295741      1.857975      0.058566
  C      -3.096777      1.259167     -0.143202
  C      -1.756326      1.913601     -0.104728
  H      -3.095725      0.164750     -0.280496
  O      -1.313963      2.674594     -0.948335
  H      -1.135467      1.657631      0.812846
  O      -4.554788      3.152211      0.341975
  H      -5.228017      1.267603      0.049502
  H      -3.725266      3.669175      0.315634
9
Coordinates from ORCA-job irc4_IRC_Full E -266.623480270960
  C      -4.296228      1.857674      0.060098
  C      -3.097315      1.260294     -0.144485
  C      -1.755208      1.914043     -0.104865
  H      -3.095157      0.166827     -0.286025
  O      -1.306849      2.664167     -0.954817
  H      -1.139642      1.666007      0.817843
  O      -4.556056      3.151348      0.346680
  H      -5.228239      1.267082      0.049178
  H      -3.727376      3.669265      0.318155
9
Coordinates from ORCA-job irc4_IRC_Full E -266.623199752649
  C      -4.296723      1.857383      0.061548
  C      -3.097474      1.262059     -0.145760
  C      -1.754739      1.914442     -0.105446
  H      -3.094461      0.168712     -0.291411
  O      -1.299604      2.653602     -0.961018
  H      -1.143465      1.674286      0.822946
  O      -4.557420      3.150374      0.351678
  H      -5.228722      1.266587      0.048785
  H      -3.729463      3.669261      0.320441
9
Coordinates from ORCA-job irc4_IRC_Full E -266.622927751892
  C      -4.297465      1.857143      0.062727
  C      -3.098099      1.263532     -0.147474
  C      -1.753562      1.914948     -0.105470
  H      -3.093506      0.171074     -0.296443
  O      -1.292438      2.642898     -0.967158
  H      -1.147263      1.682526      0.827642
  O      -4.558765      3.149322      0.357115
  H      -5.229315      1.266213      0.048376
  H      -3.731656      3.669050      0.322447
9
Coordinates from ORCA-job irc4_IRC_Full E -266.622662183770
  C      -4.298281      1.856777      0.063220
  C      -3.098354      1.266045     -0.150061
  C      -1.753043      1.915209     -0.105544
  H      -3.092310      0.173735     -0.300915
  O      -1.285729      2.631937     -0.973117
  H      -1.150041      1.690505      0.832866
  O      -4.560002      3.147862      0.363107
  H      -5.230478      1.265928      0.048109
  H      -3.733832      3.668708      0.324097
9
Coordinates from ORCA-job irc4_IRC_Full E -266.622402388031
  C      -4.300126      1.856827      0.063306
  C      -3.099004      1.268081     -0.155459
  C      -1.750577      1.918322     -0.104144
  H      -3.091208      0.174720     -0.304137
  O      -1.281469      2.622479     -0.980700
  H      -1.150283      1.695336      0.840604
  O      -4.561395      3.147500      0.369037
  H      -5.232605      1.265014      0.048064
  H      -3.735404      3.668427      0.325192
9
Coordinates from ORCA-job irc4_IRC_Full E -266.622086469228
  C      -4.301803      1.856937      0.063321
  C      -3.101367      1.269866     -0.160336
  C      -1.750303      1.922195     -0.103011
  H      -3.090515      0.173012     -0.305924
  O      -1.278448      2.618457     -0.989280
  H      -1.147289      1.695985      0.850310
  O      -4.562263      3.147761      0.372918
  H      -5.233878      1.264180      0.048042
  H      -3.736205      3.668312      0.325721
9
Coordinates from ORCA-job irc4_IRC_Full E -266.621681541067
  C      -4.303061      1.857017      0.063348
  C      -3.103777      1.271528     -0.163629
  C      -1.751215      1.925702     -0.103277
  H      -3.090103      0.170645     -0.306975
  O      -1.276429      2.616673     -0.995741
  H      -1.143775      1.695248      0.858790
  O      -4.562720      3.147921      0.375261
  H      -5.234396      1.263669      0.047998
  H      -3.736594      3.668303      0.325988
9
Coordinates from ORCA-job irc4_IRC_Full E -266.621007858390
  C      -4.303791      1.856742      0.063294
  C      -3.106796      1.274126     -0.166164
  C      -1.753832      1.928671     -0.103965
  H      -3.089778      0.167285     -0.307858
  O      -1.274108      2.616421     -1.002497
  H      -1.139435      1.693767      0.867792
  O      -4.563003      3.147995      0.377070
  H      -5.234510      1.263337      0.047929
  H      -3.736817      3.668362      0.326162
9
Coordinates from ORCA-job irc4_IRC_Full E -266.620102870558
  C      -4.308596      1.847553      0.063792
  C      -3.106221      1.285564     -0.191489
  C      -1.794374      2.006544     -0.092096
  H      -3.075688      0.225555     -0.492060
  O      -1.225390      2.549974     -1.020488
  H      -1.325762      2.014885      0.944221
  O      -4.566482      3.131266      0.411414
  H      -5.242405      1.264150      0.001931
  H      -3.741222      3.653608      0.374776
9
Coordinates from ORCA-job irc4_IRC_Full E -266.620652203079
  C      -4.313401      1.838364      0.064289
  C      -3.105646      1.297003     -0.216814
  C      -1.834915      2.084417     -0.080227
  H      -3.061599      0.283825     -0.676262
  O      -1.176673      2.483528     -1.038478
  H      -1.512089      2.336002      1.020649
  O      -4.569962      3.114537      0.445758
  H      -5.250301      1.264963     -0.044066
  H      -3.745626      3.638855      0.423389
9
Coordinates from ORCA-job irc4_IRC_Full E -266.621233275002
  C      -4.313310      1.838316      0.063833
  C      -3.103513      1.296680     -0.217003
  C      -1.835179      2.087228     -0.079052
  H      -3.061488      0.287319     -0.674732
  O      -1.175948      2.480126     -1.032908
  H      -1.514746      2.334998      1.011426
  O      -4.570016      3.113141      0.447174
  H      -5.250290      1.265190     -0.044118
  H      -3.745722      3.638497      0.423618
9
Coordinates from ORCA-job irc4_IRC_Full E -266.621595754369
  C      -4.312985      1.838002      0.063370
  C      -3.102065      1.297487     -0.216679
  C      -1.836800      2.089054     -0.078238
  H      -3.061107      0.290729     -0.673345
  O      -1.173454      2.476728     -1.028140
  H      -1.517671      2.334556      1.002536
  O      -4.569918      3.111584      0.449017
  H      -5.250176      1.265414     -0.044249
  H      -3.746035      3.637939      0.423966
9
Coordinates from ORCA-job irc4_IRC_Full E -266.621896005212
  C      -4.312993      1.837684      0.063134
  C      -3.100985      1.299371     -0.216143
  C      -1.839281      2.090858     -0.079288
  H      -3.060187      0.295208     -0.671764
  O      -1.168449      2.471447     -1.022147
  H      -1.522007      2.335086      0.992208
  O      -4.569763      3.109274      0.452140
  H      -5.249875      1.265613     -0.044551
  H      -3.746672      3.636952      0.424650
9
Coordinates from ORCA-job irc4_IRC_Full E -266.622137362975
  C      -4.313714      1.837521      0.063971
  C      -3.101918      1.302657     -0.216499
  C      -1.842353      2.091431     -0.082494
  H      -3.058370      0.299643     -0.670983
  O      -1.158220      2.464058     -1.019130
  H      -1.528114      2.338622      0.985125
  O      -4.570050      3.106954      0.457273
  H      -5.249662      1.265279     -0.045072
  H      -3.747812      3.635329      0.426048
9
Coordinates from ORCA-job irc4_IRC_Full E -266.622372440006
  C      -4.315038      1.837647      0.065826
  C      -3.102835      1.305727     -0.219736
  C      -1.841652      2.092794     -0.085237
  H      -3.056788      0.302281     -0.672078
  O      -1.147881      2.454402     -1.019159
  H      -1.535233      2.344707      0.982607
  O      -4.571485      3.105964      0.463053
  H      -5.250320      1.264181     -0.045180
  H      -3.748980      3.633792      0.428141
9
Coordinates from ORCA-job irc4_IRC_Full E -266.622607201108
  C      -4.315892      1.837722      0.067221
  C      -3.102945      1.308968     -0.223199
  C      -1.841600      2.093421     -0.087868
  H      -3.055781      0.304944     -0.674152
  O      -1.138238      2.444027     -1.018917
  H      -1.542015      2.352033      0.980788
  O      -4.572629      3.104409      0.468248
  H      -5.250665      1.263364     -0.044578
  H      -3.750448      3.632606      0.430695
9
Coordinates from ORCA-job irc4_IRC_Full E -266.622843451590
  C      -4.316455      1.837616      0.068361
  C      -3.103311      1.311378     -0.226563
  C      -1.840915      2.094316     -0.089748
  H      -3.055137      0.307643     -0.677101
  O      -1.129165      2.433256     -1.018481
  H      -1.548866      2.359982      0.978731
  O      -4.573689      3.103000      0.473042
  H      -5.250688      1.262575     -0.043584
  H      -3.751987      3.631729      0.433580
9
Coordinates from ORCA-job irc4_IRC_Full E -266.623082209767
  C      -4.316679      1.837627      0.069449
  C      -3.103198      1.313826     -0.229411
  C      -1.841029      2.094539     -0.091763
  H      -3.054744      0.310167     -0.680704
  O      -1.120255      2.422603     -1.018003
  H      -1.555448      2.368460      0.977026
  O      -4.574617      3.101521      0.477443
  H      -5.250737      1.261703     -0.042439
  H      -3.753506      3.631047      0.436640
9
Coordinates from ORCA-job irc4_IRC_Full E -266.623326549823
  C      -4.316914      1.837420      0.070525
  C      -3.103314      1.315700     -0.232151
  C      -1.840443      2.095136     -0.093404
  H      -3.054563      0.312815     -0.684778
  O      -1.111883      2.411643     -1.017132
  H      -1.562212      2.377253      0.974879
  O      -4.575460      3.100093      0.481592
  H      -5.250475      1.260910     -0.041174
  H      -3.754949      3.630523      0.439881
9
Coordinates from ORCA-job irc4_IRC_Full E -266.623573382565
  C      -4.316964      1.837337      0.071623
  C      -3.103148      1.317295     -0.234697
  C      -1.840427      2.095363     -0.094899
  H      -3.054515      0.315531     -0.689052
  O      -1.103548      2.400921     -1.016417
  H      -1.568799      2.386258      0.972883
  O      -4.576181      3.098728      0.485534
  H      -5.250261      1.260052     -0.039907
  H      -3.756370      3.630008      0.443170
9
Coordinates from ORCA-job irc4_IRC_Full E -266.623827976551
  C      -4.317068      1.837129      0.072723
  C      -3.103001      1.318981     -0.237009
  C      -1.840126      2.095703     -0.096410
  H      -3.054578      0.318095     -0.693691
  O      -1.095546      2.389958     -1.015304
  H      -1.575523      2.395538      0.970600
  O      -4.576852      3.097262      0.489366
  H      -5.249871      1.259255     -0.038608
  H      -3.757648      3.629574      0.446572
9
Coordinates from ORCA-job irc4_IRC_Full E -266.624086264024
  C      -4.316882      1.836940      0.073805
  C      -3.102850      1.320401     -0.239236
  C      -1.840069      2.095881     -0.097929
  H      -3.054713      0.320792     -0.698393
  O      -1.087640      2.379098     -1.014146
  H      -1.582163      2.404988      0.968349
  O      -4.577451      3.095903      0.493121
  H      -5.249553      1.258400     -0.037339
  H      -3.758891      3.629090      0.450007
9
Coordinates from ORCA-job irc4_IRC_Full E -266.624349606553
  C      -4.316893      1.836712      0.074899
  C      -3.102652      1.321855     -0.241342
  C      -1.839869      2.096134     -0.099279
  H      -3.054910      0.323355     -0.703260
  O      -1.079954      2.368201     -1.012802
  H      -1.588873      2.414540      0.965815
  O      -4.577969      3.094442      0.496788
  H      -5.249084      1.257620     -0.036076
  H      -3.760009      3.628636      0.453494
9
Coordinates from ORCA-job irc4_IRC_Full E -266.624616902418
  C      -4.316687      1.836531      0.075981
  C      -3.102393      1.323065     -0.243437
  C      -1.839853      2.096273     -0.100783
  H      -3.055151      0.326061     -0.708114
  O      -1.072383      2.357348     -1.011293
  H      -1.595515      2.424244      0.963288
  O      -4.578434      3.093077      0.500437
  H      -5.248707      1.256784     -0.034854
  H      -3.761089      3.628110      0.457011
9
Coordinates from ORCA-job irc4_IRC_Full E -266.624888134503
  C      -4.316627      1.836271      0.077046
  C      -3.102203      1.324408     -0.245412
  C      -1.839729      2.096472     -0.102047
  H      -3.055421      0.328587     -0.713072
  O      -1.064947      2.346528     -1.009693
  H      -1.602217      2.433982      0.960473
  O      -4.578835      3.091610      0.504024
  H      -5.248192      1.256033     -0.033645
  H      -3.762042      3.627602      0.460565
9
Coordinates from ORCA-job irc4_IRC_Full E -266.625163056555
  C      -4.316383      1.836084      0.078100
  C      -3.101918      1.325513     -0.247429
  C      -1.839734      2.096591     -0.103550
  H      -3.055716      0.331263     -0.717972
  O      -1.057647      2.335722     -1.007849
  H      -1.608863      2.443852      0.957642
  O      -4.579192      3.090238      0.507622
  H      -5.247792      1.255221     -0.032478
  H      -3.762966      3.627009      0.464152
9
Coordinates from ORCA-job irc4_IRC_Full E -266.625440974675
  C      -4.316280      1.835821      0.079128
  C      -3.101725      1.326758     -0.249350
  C      -1.839696      2.096749     -0.104775
  H      -3.056025      0.333763     -0.722929
  O      -1.050406      2.324993     -1.005990
  H      -1.615551      2.453718      0.954541
  O      -4.579489      3.088769      0.511168
  H      -5.247266      1.254495     -0.031326
  H      -3.763775      3.626428      0.467771
9
Coordinates from ORCA-job irc4_IRC_Full E -266.625722371657
  C      -4.316034      1.835620      0.080141
  C      -3.101443      1.327823     -0.251325
  C      -1.839708      2.096862     -0.106271
  H      -3.056349      0.336379     -0.727821
  O      -1.043333      2.314249     -1.003825
  H      -1.622202      2.463700      0.951380
  O      -4.579755      3.087373      0.514739
  H      -5.246841      1.253720     -0.030211
  H      -3.764548      3.625768      0.471429
9
Coordinates from ORCA-job irc4_IRC_Full E -266.626005851275
  C      -4.315876      1.835376      0.081128
  C      -3.101245      1.328974     -0.253243
  C      -1.839753      2.096988     -0.107502
  H      -3.056676      0.338867     -0.732721
  O      -1.036262      2.303607     -1.001690
  H      -1.628868      2.473662      0.947996
  O      -4.579962      3.085914      0.518269
  H      -5.246334      1.253006     -0.029114
  H      -3.765238      3.625099      0.475115
